<?xml version="1.0" encoding="UTF-8"?>

<!-- generated on 25-06-2018 01:04:14 by Netedit Version 0.32.0
<?xml version="1.0" encoding="UTF-8"?>

<configuration xmlns:xsi="http://www.w3.org/2001/XMLSchema-instance" xsi:noNamespaceSchemaLocation="http://sumo.dlr.de/xsd/netconvertConfiguration.xsd">

    <output>
        <output-file value="C:\Users\Abhinav%20Anand\Desktop\FINAL\FINAL.net.xml"/>
    </output>

    <processing>
        <no-turnarounds value="true"/>
        <offset.disable-normalization value="true"/>
    </processing>

</configuration>
-->

<net version="0.27" xmlns:xsi="http://www.w3.org/2001/XMLSchema-instance" xsi:noNamespaceSchemaLocation="http://sumo.dlr.de/xsd/net_file.xsd">

    <location netOffset="0.00,0.00" convBoundary="-5.02,20.26,120.07,90.52" origBoundary="10000000000.00,10000000000.00,-10000000000.00,-10000000000.00" projParameter="!"/>

    <edge id=":gneJ10_0" function="internal">
        <lane id=":gneJ10_0_0" index="0" speed="13.89" length="7.62" shape="95.56,51.32 95.11,53.34 94.13,54.77 92.61,55.61 90.55,55.85"/>
    </edge>
    <edge id=":gneJ10_1" function="internal">
        <lane id=":gneJ10_1_0" index="0" speed="13.89" length="2.49" shape="90.63,52.55 91.30,52.47 91.80,52.20 92.12,51.73 92.27,51.07"/>
    </edge>
    <edge id=":gneJ11_0" function="internal">
        <lane id=":gneJ11_0_0" index="0" speed="13.89" length="7.80" shape="65.60,55.26 63.50,54.91 62.00,53.97 61.11,52.44 60.82,50.33"/>
    </edge>
    <edge id=":gneJ11_1" function="internal">
        <lane id=":gneJ11_1_0" index="0" speed="13.89" length="2.55" shape="64.12,50.35 64.22,51.04 64.51,51.54 65.00,51.84 65.68,51.96"/>
    </edge>
    <edge id=":gneJ16_0" function="internal">
        <lane id=":gneJ16_0_0" index="0" speed="13.89" length="8.05" shape="59.28,18.68 61.47,18.95 63.04,19.86 63.97,21.41 64.27,23.60"/>
    </edge>
    <edge id=":gneJ16_1" function="internal">
        <lane id=":gneJ16_1_0" index="0" speed="13.89" length="2.63" shape="60.97,23.58 60.87,22.87 60.57,22.36 60.06,22.06 59.34,21.97"/>
    </edge>
    <edge id=":gneJ17_0" function="internal">
        <lane id=":gneJ17_0_0" index="0" speed="13.89" length="2.52" shape="-1.10,23.15 -1.78,23.26 -2.27,23.56 -2.56,24.05 -2.67,24.73"/>
    </edge>
    <edge id=":gneJ17_1" function="internal">
        <lane id=":gneJ17_1_0" index="0" speed="13.89" length="7.71" shape="-5.97,24.68 -5.64,22.60 -4.73,21.10 -3.24,20.19 -1.16,19.85"/>
    </edge>
    <edge id=":gneJ3_0" function="internal">
        <lane id=":gneJ3_0_0" index="0" speed="13.89" length="7.97" shape="-1.74,76.19 -3.90,75.88 -5.44,74.95 -6.34,73.39 -6.62,71.22"/>
    </edge>
    <edge id=":gneJ3_1" function="internal">
        <lane id=":gneJ3_1_0" index="0" speed="13.89" length="2.60" shape="-3.32,71.27 -3.23,71.98 -2.94,72.49 -2.43,72.79 -1.73,72.89"/>
    </edge>
    <edge id=":gneJ4_0" function="internal">
        <lane id=":gneJ4_0_0" index="0" speed="13.89" length="2.53" shape="67.57,77.93 67.46,77.24 67.15,76.76 66.66,76.46 65.98,76.36"/>
    </edge>
    <edge id=":gneJ4_1" function="internal">
        <lane id=":gneJ4_1_0" index="0" speed="13.89" length="7.75" shape="65.98,73.06 68.08,73.37 69.59,74.27 70.52,75.76 70.87,77.85"/>
    </edge>
    <edge id=":gneJ6_0" function="internal">
        <lane id=":gneJ6_0_0" index="0" speed="13.89" length="7.75" shape="72.67,92.00 70.58,91.69 69.07,90.79 68.14,89.30 67.79,87.21"/>
    </edge>
    <edge id=":gneJ6_1" function="internal">
        <lane id=":gneJ6_1_0" index="0" speed="13.89" length="2.53" shape="71.09,87.13 71.20,87.82 71.51,88.30 72.00,88.60 72.68,88.70"/>
    </edge>
    <edge id=":gneJ7_0" function="internal">
        <lane id=":gneJ7_0_0" index="0" speed="13.89" length="7.81" shape="120.48,87.35 120.14,89.46 119.21,90.97 117.68,91.86 115.57,92.16"/>
    </edge>
    <edge id=":gneJ7_1" function="internal">
        <lane id=":gneJ7_1_0" index="0" speed="13.89" length="2.55" shape="115.58,88.86 116.27,88.76 116.77,88.47 117.07,87.98 117.18,87.29"/>
    </edge>
    <edge id=":gneJ8_0" function="internal">
        <lane id=":gneJ8_0_0" index="0" speed="13.89" length="7.84" shape="116.92,20.93 119.03,21.30 120.52,22.25 121.40,23.79 121.66,25.92"/>
    </edge>
    <edge id=":gneJ8_1" function="internal">
        <lane id=":gneJ8_1_0" index="0" speed="13.89" length="2.56" shape="118.36,25.86 118.28,25.16 117.99,24.66 117.50,24.35 116.81,24.23"/>
    </edge>
    <edge id=":gneJ9_0" function="internal">
        <lane id=":gneJ9_0_0" index="0" speed="13.89" length="2.50" shape="99.16,23.68 98.48,23.75 97.98,24.02 97.66,24.49 97.51,25.16"/>
    </edge>
    <edge id=":gneJ9_1" function="internal">
        <lane id=":gneJ9_1_0" index="0" speed="13.89" length="7.66" shape="94.22,24.91 94.67,22.88 95.65,21.44 97.18,20.61 99.26,20.38"/>
    </edge>

    <edge id="-A" from="gneJ3" to="gneJ4" priority="1">
        <lane id="-A_0" index="0" speed="13.89" length="67.71" shape="-1.73,72.89 65.98,73.06"/>
    </edge>
    <edge id="-B" from="gneJ17" to="gneJ3" priority="1">
        <lane id="-B_0" index="0" speed="13.89" length="46.55" shape="-2.67,24.73 -3.32,71.27"/>
    </edge>
    <edge id="-C" from="gneJ16" to="gneJ17" priority="1">
        <lane id="-C_0" index="0" speed="13.89" length="60.45" shape="59.34,21.97 -1.10,23.15"/>
    </edge>
    <edge id="-D" from="gneJ11" to="gneJ16" priority="1">
        <lane id="-D_0" index="0" speed="13.89" length="26.75" shape="60.82,50.33 60.97,23.58"/>
    </edge>
    <edge id="-E" from="gneJ10" to="gneJ11" priority="1">
        <lane id="-E_0" index="0" speed="13.89" length="24.96" shape="90.55,55.85 65.60,55.26"/>
    </edge>
    <edge id="-F" from="gneJ9" to="gneJ10" priority="1">
        <lane id="-F_0" index="0" speed="13.89" length="26.23" shape="97.51,25.16 95.56,51.32"/>
    </edge>
    <edge id="-G" from="gneJ8" to="gneJ9" priority="1">
        <lane id="-G_0" index="0" speed="13.89" length="17.67" shape="116.81,24.23 99.16,23.68"/>
    </edge>
    <edge id="-H" from="gneJ7" to="gneJ8" priority="1">
        <lane id="-H_0" index="0" speed="13.89" length="61.44" shape="117.18,87.29 118.36,25.86"/>
    </edge>
    <edge id="-I" from="gneJ6" to="gneJ7" priority="1">
        <lane id="-I_0" index="0" speed="13.89" length="42.89" shape="72.68,88.70 115.58,88.86"/>
    </edge>
    <edge id="-J" from="gneJ4" to="gneJ6" priority="1">
        <lane id="-J_0" index="0" speed="13.89" length="9.29" shape="70.87,77.85 71.09,87.13"/>
    </edge>
    <edge id="A" from="gneJ4" to="gneJ3" priority="1">
        <lane id="A_0" index="0" speed="13.89" length="67.71" shape="65.98,76.36 -1.74,76.19"/>
    </edge>
    <edge id="B" from="gneJ3" to="gneJ17" priority="1">
        <lane id="B_0" index="0" speed="13.89" length="46.55" shape="-6.62,71.22 -5.97,24.68"/>
    </edge>
    <edge id="C" from="gneJ17" to="gneJ16" priority="1">
        <lane id="C_0" index="0" speed="13.89" length="60.45" shape="-1.16,19.85 59.28,18.68"/>
    </edge>
    <edge id="D" from="gneJ16" to="gneJ11" priority="1">
        <lane id="D_0" index="0" speed="13.89" length="26.75" shape="64.27,23.60 64.12,50.35"/>
    </edge>
    <edge id="E" from="gneJ11" to="gneJ10" priority="1">
        <lane id="E_0" index="0" speed="13.89" length="24.96" shape="65.68,51.96 90.63,52.55"/>
    </edge>
    <edge id="F" from="gneJ10" to="gneJ9" priority="1">
        <lane id="F_0" index="0" speed="13.89" length="26.23" shape="92.27,51.07 94.22,24.91"/>
    </edge>
    <edge id="G" from="gneJ9" to="gneJ8" priority="1">
        <lane id="G_0" index="0" speed="13.89" length="17.67" shape="99.26,20.38 116.92,20.93"/>
    </edge>
    <edge id="H" from="gneJ8" to="gneJ7" priority="1">
        <lane id="H_0" index="0" speed="13.89" length="61.44" shape="121.66,25.92 120.48,87.35"/>
    </edge>
    <edge id="I" from="gneJ7" to="gneJ6" priority="1">
        <lane id="I_0" index="0" speed="13.89" length="42.89" shape="115.57,92.16 72.67,92.00"/>
    </edge>
    <edge id="J" from="gneJ6" to="gneJ4" priority="1">
        <lane id="J_0" index="0" speed="13.89" length="9.29" shape="67.79,87.21 67.57,77.93"/>
    </edge>

    <junction id="gneJ10" type="priority" x="93.68" y="54.28" incLanes="-F_0 E_0" intLanes=":gneJ10_0_0 :gneJ10_1_0" shape="97.15,51.44 90.67,50.95 90.51,57.45">
        <request index="0" response="00" foes="00" cont="0"/>
        <request index="1" response="00" foes="00" cont="0"/>
    </junction>
    <junction id="gneJ11" type="priority" x="62.45" y="53.53" incLanes="-E_0 D_0" intLanes=":gneJ11_0_0 :gneJ11_1_0" shape="65.57,56.86 65.72,50.36 59.22,50.32">
        <request index="0" response="00" foes="00" cont="0"/>
        <request index="1" response="00" foes="00" cont="0"/>
    </junction>
    <junction id="gneJ16" type="priority" x="62.64" y="20.26" incLanes="C_0 -D_0" intLanes=":gneJ16_0_0 :gneJ16_1_0" shape="59.24,17.08 59.37,23.57 65.87,23.61">
        <request index="0" response="00" foes="00" cont="0"/>
        <request index="1" response="00" foes="00" cont="0"/>
    </junction>
    <junction id="gneJ17" type="priority" x="-4.28" y="21.56" incLanes="-C_0 B_0" intLanes=":gneJ17_0_0 :gneJ17_1_0" shape="-1.07,24.75 -1.20,18.25 -7.57,24.66">
        <request index="0" response="00" foes="00" cont="0"/>
        <request index="1" response="00" foes="00" cont="0"/>
    </junction>
    <junction id="gneJ3" type="priority" x="-5.02" y="74.54" incLanes="A_0 -B_0" intLanes=":gneJ3_0_0 :gneJ3_1_0" shape="-1.74,77.79 -1.72,71.29 -8.22,71.20">
        <request index="0" response="00" foes="00" cont="0"/>
        <request index="1" response="00" foes="00" cont="0"/>
    </junction>
    <junction id="gneJ4" type="priority" x="69.14" y="74.72" incLanes="J_0 -A_0" intLanes=":gneJ4_0_0 :gneJ4_1_0" shape="65.97,77.96 72.47,77.81 65.99,71.46">
        <request index="0" response="00" foes="00" cont="0"/>
        <request index="1" response="00" foes="00" cont="0"/>
    </junction>
    <junction id="gneJ6" type="priority" x="69.52" y="90.33" incLanes="I_0 -J_0" intLanes=":gneJ6_0_0 :gneJ6_1_0" shape="72.67,93.60 72.69,87.10 66.19,87.25">
        <request index="0" response="00" foes="00" cont="0"/>
        <request index="1" response="00" foes="00" cont="0"/>
    </junction>
    <junction id="gneJ7" type="priority" x="118.77" y="90.52" incLanes="H_0 -I_0" intLanes=":gneJ7_0_0 :gneJ7_1_0" shape="122.08,87.38 115.59,87.26 115.56,93.76">
        <request index="0" response="00" foes="00" cont="0"/>
        <request index="1" response="00" foes="00" cont="0"/>
    </junction>
    <junction id="gneJ8" type="priority" x="120.07" y="22.68" incLanes="G_0 -H_0" intLanes=":gneJ8_0_0 :gneJ8_1_0" shape="116.96,19.33 116.76,25.83 123.26,25.95">
        <request index="0" response="00" foes="00" cont="0"/>
        <request index="1" response="00" foes="00" cont="0"/>
    </junction>
    <junction id="gneJ9" type="priority" x="96.10" y="21.93" incLanes="-G_0 F_0" intLanes=":gneJ9_0_0 :gneJ9_1_0" shape="99.11,25.28 99.31,18.78 92.62,24.79">
        <request index="0" response="00" foes="00" cont="0"/>
        <request index="1" response="00" foes="00" cont="0"/>
    </junction>

    <connection from="-A" to="-J" fromLane="0" toLane="0" via=":gneJ4_1_0" dir="l" state="M"/>
    <connection from="-B" to="-A" fromLane="0" toLane="0" via=":gneJ3_1_0" dir="r" state="M"/>
    <connection from="-C" to="-B" fromLane="0" toLane="0" via=":gneJ17_0_0" dir="r" state="M"/>
    <connection from="-D" to="-C" fromLane="0" toLane="0" via=":gneJ16_1_0" dir="r" state="M"/>
    <connection from="-E" to="-D" fromLane="0" toLane="0" via=":gneJ11_0_0" dir="l" state="M"/>
    <connection from="-F" to="-E" fromLane="0" toLane="0" via=":gneJ10_0_0" dir="l" state="M"/>
    <connection from="-G" to="-F" fromLane="0" toLane="0" via=":gneJ9_0_0" dir="r" state="M"/>
    <connection from="-H" to="-G" fromLane="0" toLane="0" via=":gneJ8_1_0" dir="r" state="M"/>
    <connection from="-I" to="-H" fromLane="0" toLane="0" via=":gneJ7_1_0" dir="r" state="M"/>
    <connection from="-J" to="-I" fromLane="0" toLane="0" via=":gneJ6_1_0" dir="r" state="M"/>
    <connection from="A" to="B" fromLane="0" toLane="0" via=":gneJ3_0_0" dir="l" state="M"/>
    <connection from="B" to="C" fromLane="0" toLane="0" via=":gneJ17_1_0" dir="l" state="M"/>
    <connection from="C" to="D" fromLane="0" toLane="0" via=":gneJ16_0_0" dir="l" state="M"/>
    <connection from="D" to="E" fromLane="0" toLane="0" via=":gneJ11_1_0" dir="r" state="M"/>
    <connection from="E" to="F" fromLane="0" toLane="0" via=":gneJ10_1_0" dir="r" state="M"/>
    <connection from="F" to="G" fromLane="0" toLane="0" via=":gneJ9_1_0" dir="l" state="M"/>
    <connection from="G" to="H" fromLane="0" toLane="0" via=":gneJ8_0_0" dir="l" state="M"/>
    <connection from="H" to="I" fromLane="0" toLane="0" via=":gneJ7_0_0" dir="l" state="M"/>
    <connection from="I" to="J" fromLane="0" toLane="0" via=":gneJ6_0_0" dir="l" state="M"/>
    <connection from="J" to="A" fromLane="0" toLane="0" via=":gneJ4_0_0" dir="r" state="M"/>

    <connection from=":gneJ10_0" to="-E" fromLane="0" toLane="0" dir="l" state="M"/>
    <connection from=":gneJ10_1" to="F" fromLane="0" toLane="0" dir="r" state="M"/>
    <connection from=":gneJ11_0" to="-D" fromLane="0" toLane="0" dir="l" state="M"/>
    <connection from=":gneJ11_1" to="E" fromLane="0" toLane="0" dir="r" state="M"/>
    <connection from=":gneJ16_0" to="D" fromLane="0" toLane="0" dir="l" state="M"/>
    <connection from=":gneJ16_1" to="-C" fromLane="0" toLane="0" dir="r" state="M"/>
    <connection from=":gneJ17_0" to="-B" fromLane="0" toLane="0" dir="r" state="M"/>
    <connection from=":gneJ17_1" to="C" fromLane="0" toLane="0" dir="l" state="M"/>
    <connection from=":gneJ3_0" to="B" fromLane="0" toLane="0" dir="l" state="M"/>
    <connection from=":gneJ3_1" to="-A" fromLane="0" toLane="0" dir="r" state="M"/>
    <connection from=":gneJ4_0" to="A" fromLane="0" toLane="0" dir="r" state="M"/>
    <connection from=":gneJ4_1" to="-J" fromLane="0" toLane="0" dir="l" state="M"/>
    <connection from=":gneJ6_0" to="J" fromLane="0" toLane="0" dir="l" state="M"/>
    <connection from=":gneJ6_1" to="-I" fromLane="0" toLane="0" dir="r" state="M"/>
    <connection from=":gneJ7_0" to="I" fromLane="0" toLane="0" dir="l" state="M"/>
    <connection from=":gneJ7_1" to="-H" fromLane="0" toLane="0" dir="r" state="M"/>
    <connection from=":gneJ8_0" to="H" fromLane="0" toLane="0" dir="l" state="M"/>
    <connection from=":gneJ8_1" to="-G" fromLane="0" toLane="0" dir="r" state="M"/>
    <connection from=":gneJ9_0" to="-F" fromLane="0" toLane="0" dir="r" state="M"/>
    <connection from=":gneJ9_1" to="G" fromLane="0" toLane="0" dir="l" state="M"/>

</net>
