<routes>
   <vType id="taxi" type="passenger" length="5" accel="3.5" decel="2.2" sigma="1.0"/>
   <flow id="carflow" type="taxi" beg="0" end="0" number="5" from="A" to="B"/>
</routes>